Git is a distributed version contorl system.
Git is free software distributed under the GPL.
Git has a mutable index called stage.
Git tracks changes of files.
New line.
Add a new branch dev.
Merge branch 'master' to 'dev]'.
Creating a new branch is quick and simple.
Third branch.
Manage branch.
Git stash.
