Git is a distributed version contorl system.
Git is free software distributed under the GPL.
Git has a mutable index called stage.
Git tracks changes of files.
new line.
add a new branch dev.
merge branch 'master' to 'dev]'.
Creating a new branch is quick and simple.
Third branch.
manage branch.
